6)Montecarlo-LowVoltage/OpenDSS/Lines.dss
New line.LINE1 Bus1=1 Bus2=2 phases=3 linecode=4c_70 length=1.098 units=m
New line.LINE2 Bus1=2 Bus2=3 phases=3 linecode=4c_70 length=0.11511 units=m
New line.LINE3 Bus1=3 Bus2=4 phases=3 linecode=4c_70 length=0.10784 units=m
New line.LINE4 Bus1=4 Bus2=5 phases=3 linecode=4c_70 length=0.094021 units=m
New line.LINE5 Bus1=5 Bus2=6 phases=3 linecode=4c_70 length=0.14812 units=m
New line.LINE6 Bus1=6 Bus2=7 phases=3 linecode=4c_70 length=10.0863 units=m
New line.LINE7 Bus1=7 Bus2=8 phases=3 linecode=4c_70 length=0.45175 units=m
New line.LINE8 Bus1=8 Bus2=9 phases=3 linecode=4c_70 length=0.376 units=m
New line.LINE9 Bus1=9 Bus2=10 phases=3 linecode=4c_70 length=0.32997 units=m
New line.LINE10 Bus1=10 Bus2=11 phases=3 linecode=4c_70 length=0.24622 units=m
New line.LINE11 Bus1=11 Bus2=12 phases=3 linecode=4c_70 length=0.23114 units=m
New line.LINE12 Bus1=12 Bus2=13 phases=3 linecode=4c_70 length=0.14213 units=m
New line.LINE13 Bus1=13 Bus2=14 phases=3 linecode=4c_70 length=0.35384 units=m
New line.LINE14 Bus1=14 Bus2=15 phases=3 linecode=4c_70 length=2.8664 units=m
New line.LINE15 Bus1=15 Bus2=16 phases=3 linecode=2c_.007 length=0.09654 units=m
New line.LINE16 Bus1=15 Bus2=17 phases=3 linecode=4c_70 length=3.476 units=m
New line.LINE17 Bus1=16 Bus2=18 phases=3 linecode=2c_.007 length=0.044045 units=m
New line.LINE18 Bus1=17 Bus2=19 phases=3 linecode=4c_70 length=0.23917 units=m
New line.LINE19 Bus1=18 Bus2=20 phases=3 linecode=2c_.007 length=0.046174 units=m
New line.LINE20 Bus1=19 Bus2=21 phases=3 linecode=4c_70 length=0.26856 units=m
New line.LINE21 Bus1=20 Bus2=22 phases=3 linecode=2c_.007 length=0.041976 units=m
New line.LINE22 Bus1=21 Bus2=23 phases=3 linecode=4c_70 length=0.43727 units=m
New line.LINE23 Bus1=22 Bus2=24 phases=3 linecode=2c_.007 length=0.051245 units=m
New line.LINE24 Bus1=23 Bus2=25 phases=3 linecode=4c_70 length=0.7955 units=m
New line.LINE25 Bus1=24 Bus2=26 phases=3 linecode=2c_.007 length=0.055902 units=m
New line.LINE26 Bus1=25 Bus2=27 phases=3 linecode=2c_16 length=5.9049 units=m
New line.LINE27 Bus1=25 Bus2=28 phases=3 linecode=4c_70 length=9.9686 units=m
New line.LINE28 Bus1=26 Bus2=29 phases=3 linecode=2c_.007 length=0.054562 units=m
New line.LINE29 Bus1=27 Bus2=30 phases=3 linecode=2c_16 length=1.6265 units=m
New line.LINE30 Bus1=27 Bus2=31 phases=3 linecode=2c_16 length=1.5847 units=m
New line.LINE31 Bus1=28 Bus2=32 phases=3 linecode=4c_70 length=2.6538 units=m
New line.LINE32 Bus1=29 Bus2=33 phases=3 linecode=2c_.007 length=0.14629 units=m
New line.LINE33 Bus1=30 Bus2=34 phases=3 linecode=2c_16 length=3.7248 units=m
New line.LINE34 Bus1=31 Bus2=35 phases=3 linecode=2c_16 length=0.053666 units=m
New line.LINE35 Bus1=32 Bus2=36 phases=3 linecode=2c_16 length=5.7265 units=m
New line.LINE36 Bus1=32 Bus2=37 phases=3 linecode=4c_70 length=8.0244 units=m
New line.LINE37 Bus1=33 Bus2=38 phases=3 linecode=2c_.007 length=0.13648 units=m
New line.LINE38 Bus1=35 Bus2=39 phases=3 linecode=2c_16 length=0.077162 units=m
New line.LINE39 Bus1=36 Bus2=40 phases=3 linecode=2c_16 length=0.40004 units=m
New line.LINE40 Bus1=36 Bus2=41 phases=3 linecode=2c_16 length=1.8063 units=m
New line.LINE41 Bus1=37 Bus2=42 phases=3 linecode=4c_70 length=5.5684 units=m
New line.LINE42 Bus1=37 Bus2=43 phases=3 linecode=4c_185 length=0.21675 units=m
New line.LINE43 Bus1=38 Bus2=44 phases=3 linecode=2c_.007 length=0.033838 units=m
New line.LINE44 Bus1=39 Bus2=45 phases=3 linecode=2c_16 length=0.098955 units=m
New line.LINE45 Bus1=40 Bus2=46 phases=3 linecode=2c_16 length=0.18031 units=m
New line.LINE46 Bus1=41 Bus2=47 phases=3 linecode=2c_16 length=4.3463 units=m
New line.LINE47 Bus1=42 Bus2=48 phases=3 linecode=4c_70 length=4.2078 units=m
New line.LINE48 Bus1=43 Bus2=49 phases=3 linecode=4c_185 length=0.10436 units=m
New line.LINE49 Bus1=44 Bus2=50 phases=3 linecode=2c_.007 length=0.048104 units=m
New line.LINE50 Bus1=45 Bus2=51 phases=3 linecode=2c_16 length=0.241 units=m
New line.LINE51 Bus1=46 Bus2=52 phases=3 linecode=2c_16 length=0.19109 units=m
New line.LINE52 Bus1=48 Bus2=53 phases=3 linecode=4c_70 length=0.60668 units=m
New line.LINE53 Bus1=48 Bus2=54 phases=3 linecode=4c_70 length=0.63949 units=m
New line.LINE54 Bus1=49 Bus2=55 phases=3 linecode=4c_185 length=0.11625 units=m
New line.LINE55 Bus1=50 Bus2=56 phases=3 linecode=2c_.007 length=0.087664 units=m
New line.LINE56 Bus1=51 Bus2=57 phases=3 linecode=2c_16 length=0.20634 units=m
New line.LINE57 Bus1=52 Bus2=58 phases=3 linecode=2c_16 length=0.182 units=m
New line.LINE58 Bus1=53 Bus2=59 phases=3 linecode=4c_70 length=2.7481 units=m
New line.LINE59 Bus1=54 Bus2=60 phases=3 linecode=4c_70 length=0.065368 units=m
New line.LINE60 Bus1=55 Bus2=61 phases=3 linecode=4c_185 length=0.10028 units=m
New line.LINE61 Bus1=56 Bus2=62 phases=3 linecode=2c_.007 length=0.078 units=m
New line.LINE62 Bus1=57 Bus2=63 phases=3 linecode=2c_16 length=0.98912 units=m
New line.LINE63 Bus1=58 Bus2=64 phases=3 linecode=2c_16 length=0.109 units=m
New line.LINE64 Bus1=59 Bus2=65 phases=3 linecode=4c_70 length=0.55868 units=m
New line.LINE65 Bus1=59 Bus2=66 phases=3 linecode=2c_16 length=8.2583 units=m
New line.LINE66 Bus1=60 Bus2=67 phases=3 linecode=4c_70 length=0.074 units=m
New line.LINE67 Bus1=61 Bus2=68 phases=3 linecode=4c_185 length=0.096042 units=m
New line.LINE68 Bus1=62 Bus2=69 phases=3 linecode=2c_.007 length=0.083241 units=m
New line.LINE69 Bus1=63 Bus2=70 phases=3 linecode=2c_16 length=3.4962 units=m
New line.LINE70 Bus1=64 Bus2=71 phases=3 linecode=2c_16 length=0.21385 units=m
New line.LINE71 Bus1=65 Bus2=72 phases=3 linecode=4c_70 length=6.6006 units=m
New line.LINE72 Bus1=66 Bus2=73 phases=3 linecode=2c_16 length=4.0366 units=m
New line.LINE73 Bus1=66 Bus2=74 phases=3 linecode=2c_16 length=4.0366 units=m
New line.LINE74 Bus1=67 Bus2=75 phases=3 linecode=4c_70 length=0.17951 units=m
New line.LINE75 Bus1=68 Bus2=76 phases=3 linecode=4c_185 length=0.23551 units=m
New line.LINE76 Bus1=69 Bus2=77 phases=3 linecode=2c_.007 length=0.38907 units=m
New line.LINE77 Bus1=71 Bus2=78 phases=3 linecode=2c_16 length=1.0838 units=m
New line.LINE78 Bus1=72 Bus2=79 phases=3 linecode=4c_70 length=2.3008 units=m
New line.LINE79 Bus1=75 Bus2=80 phases=3 linecode=4c_70 length=0.10362 units=m
New line.LINE80 Bus1=76 Bus2=81 phases=3 linecode=4c_185 length=0.7469 units=m
New line.LINE81 Bus1=77 Bus2=82 phases=3 linecode=2c_.007 length=0.51088 units=m
New line.LINE82 Bus1=78 Bus2=83 phases=3 linecode=2c_16 length=4.084 units=m
New line.LINE83 Bus1=79 Bus2=84 phases=3 linecode=4c_70 length=0.50211 units=m
New line.LINE84 Bus1=80 Bus2=85 phases=3 linecode=4c_70 length=0.11122 units=m
New line.LINE85 Bus1=81 Bus2=86 phases=3 linecode=4c_185 length=1.4388 units=m
New line.LINE86 Bus1=82 Bus2=87 phases=3 linecode=2c_.007 length=0.31045 units=m
New line.LINE87 Bus1=84 Bus2=88 phases=3 linecode=4c_70 length=1.0182 units=m
New line.LINE88 Bus1=85 Bus2=89 phases=3 linecode=4c_70 length=0.1048 units=m
New line.LINE89 Bus1=86 Bus2=90 phases=3 linecode=4c_185 length=0.34251 units=m
New line.LINE90 Bus1=87 Bus2=91 phases=3 linecode=2c_.007 length=0.11206 units=m
New line.LINE91 Bus1=88 Bus2=92 phases=3 linecode=4c_70 length=0.96021 units=m
New line.LINE92 Bus1=90 Bus2=93 phases=3 linecode=4c_185 length=0.065307 units=m
New line.LINE93 Bus1=91 Bus2=94 phases=3 linecode=2c_.007 length=0.034785 units=m
New line.LINE94 Bus1=92 Bus2=95 phases=3 linecode=4c_70 length=0.55811 units=m
New line.LINE95 Bus1=93 Bus2=96 phases=3 linecode=4c_185 length=0.086052 units=m
New line.LINE96 Bus1=94 Bus2=97 phases=3 linecode=2c_.007 length=0.03677 units=m
New line.LINE97 Bus1=95 Bus2=98 phases=3 linecode=4c_70 length=0.36859 units=m
New line.LINE98 Bus1=96 Bus2=99 phases=3 linecode=4c_185 length=0.037216 units=m
New line.LINE99 Bus1=97 Bus2=100 phases=3 linecode=2c_.007 length=0.089588 units=m
New line.LINE100 Bus1=98 Bus2=101 phases=3 linecode=4c_70 length=0.50892 units=m
New line.LINE101 Bus1=99 Bus2=102 phases=3 linecode=4c_185 length=5.0819 units=m
New line.LINE102 Bus1=100 Bus2=103 phases=3 linecode=2c_.007 length=0.28583 units=m
New line.LINE103 Bus1=101 Bus2=104 phases=3 linecode=4c_.35 length=0.28838 units=m
New line.LINE104 Bus1=101 Bus2=105 phases=3 linecode=4c_70 length=0.33602 units=m
New line.LINE105 Bus1=102 Bus2=106 phases=3 linecode=4c_185 length=0.22108 units=m
New line.LINE106 Bus1=104 Bus2=107 phases=3 linecode=4c_.35 length=0.3489 units=m
New line.LINE107 Bus1=105 Bus2=108 phases=3 linecode=4c_70 length=0.19054 units=m
New line.LINE108 Bus1=106 Bus2=109 phases=3 linecode=4c_185 length=0.45085 units=m
New line.LINE109 Bus1=107 Bus2=110 phases=3 linecode=4c_.35 length=0.4044 units=m
New line.LINE110 Bus1=108 Bus2=111 phases=3 linecode=4c_70 length=7.5182 units=m
New line.LINE111 Bus1=109 Bus2=112 phases=3 linecode=4c_185 length=11.9766 units=m
New line.LINE112 Bus1=110 Bus2=113 phases=3 linecode=4c_.35 length=0.61659 units=m
New line.LINE113 Bus1=111 Bus2=114 phases=3 linecode=4c_70 length=0.75316 units=m
New line.LINE114 Bus1=112 Bus2=115 phases=3 linecode=4c_185 length=10.6613 units=m
New line.LINE115 Bus1=113 Bus2=116 phases=3 linecode=4c_.35 length=0.79271 units=m
New line.LINE116 Bus1=114 Bus2=117 phases=3 linecode=4c_.35 length=1.1056 units=m
New line.LINE117 Bus1=114 Bus2=118 phases=3 linecode=4c_.1 length=3.6556 units=m
New line.LINE118 Bus1=115 Bus2=119 phases=3 linecode=4c_185 length=0.99464 units=m
New line.LINE119 Bus1=116 Bus2=120 phases=3 linecode=4c_.35 length=0.56909 units=m
New line.LINE120 Bus1=117 Bus2=121 phases=3 linecode=2c_.007 length=0.19481 units=m
New line.LINE121 Bus1=117 Bus2=122 phases=3 linecode=4c_.35 length=0.53831 units=m
New line.LINE122 Bus1=118 Bus2=123 phases=3 linecode=4c_.1 length=6.5924 units=m
New line.LINE123 Bus1=119 Bus2=124 phases=3 linecode=4c_185 length=0.7248 units=m
New line.LINE124 Bus1=120 Bus2=125 phases=3 linecode=4c_.35 length=0.80412 units=m
New line.LINE125 Bus1=121 Bus2=126 phases=3 linecode=2c_.007 length=0.16869 units=m
New line.LINE126 Bus1=122 Bus2=127 phases=3 linecode=4c_.35 length=2.5288 units=m
New line.LINE127 Bus1=123 Bus2=128 phases=3 linecode=4c_.1 length=2.9646 units=m
New line.LINE128 Bus1=124 Bus2=129 phases=3 linecode=4c_185 length=0.62512 units=m
New line.LINE129 Bus1=125 Bus2=130 phases=3 linecode=4c_.35 length=0.87 units=m
New line.LINE130 Bus1=126 Bus2=131 phases=3 linecode=2c_.007 length=0.11915 units=m
New line.LINE131 Bus1=127 Bus2=132 phases=3 linecode=2c_16 length=3.8212 units=m
New line.LINE132 Bus1=127 Bus2=133 phases=3 linecode=4c_.35 length=7.1782 units=m
New line.LINE133 Bus1=128 Bus2=134 phases=3 linecode=4c_.1 length=0.88205 units=m
New line.LINE134 Bus1=129 Bus2=135 phases=3 linecode=4c_185 length=1.9203 units=m
New line.LINE135 Bus1=130 Bus2=136 phases=3 linecode=4c_.35 length=0.82048 units=m
New line.LINE136 Bus1=131 Bus2=137 phases=3 linecode=2c_.007 length=0.18436 units=m
New line.LINE137 Bus1=132 Bus2=138 phases=3 linecode=2c_16 length=0.32908 units=m
New line.LINE138 Bus1=133 Bus2=139 phases=3 linecode=4c_.35 length=5.3402 units=m
New line.LINE139 Bus1=134 Bus2=140 phases=3 linecode=4c_.1 length=0.99566 units=m
New line.LINE140 Bus1=135 Bus2=141 phases=3 linecode=4c_185 length=1.4127 units=m
New line.LINE141 Bus1=136 Bus2=142 phases=3 linecode=4c_.35 length=1.349 units=m
New line.LINE142 Bus1=137 Bus2=143 phases=3 linecode=2c_.007 length=0.21781 units=m
New line.LINE143 Bus1=138 Bus2=144 phases=3 linecode=2c_16 length=0.32289 units=m
New line.LINE144 Bus1=139 Bus2=145 phases=3 linecode=4c_.35 length=3.5762 units=m
New line.LINE145 Bus1=140 Bus2=146 phases=3 linecode=4c_.1 length=0.9364 units=m
New line.LINE146 Bus1=141 Bus2=147 phases=3 linecode=4c_185 length=0.24053 units=m
New line.LINE147 Bus1=142 Bus2=148 phases=3 linecode=4c_.35 length=6.4142 units=m
New line.LINE148 Bus1=143 Bus2=149 phases=3 linecode=2c_.007 length=0.19401 units=m
New line.LINE149 Bus1=144 Bus2=150 phases=3 linecode=2c_16 length=0.26072 units=m
New line.LINE150 Bus1=145 Bus2=151 phases=3 linecode=4c_.35 length=3.5713 units=m
New line.LINE151 Bus1=145 Bus2=152 phases=3 linecode=2c_16 length=5.1314 units=m
New line.LINE152 Bus1=146 Bus2=153 phases=3 linecode=4c_.1 length=1.0926 units=m
New line.LINE153 Bus1=147 Bus2=154 phases=3 linecode=4c_185 length=0.083096 units=m
New line.LINE154 Bus1=148 Bus2=155 phases=3 linecode=4c_.35 length=1.3973 units=m
New line.LINE155 Bus1=149 Bus2=156 phases=3 linecode=2c_.007 length=0.2191 units=m
New line.LINE156 Bus1=150 Bus2=157 phases=3 linecode=2c_16 length=0.39132 units=m
New line.LINE157 Bus1=151 Bus2=158 phases=3 linecode=4c_.35 length=9.4713 units=m
New line.LINE158 Bus1=152 Bus2=159 phases=3 linecode=2c_16 length=0.31233 units=m
New line.LINE159 Bus1=153 Bus2=160 phases=3 linecode=4c_.1 length=0.31439 units=m
New line.LINE160 Bus1=154 Bus2=161 phases=3 linecode=4c_185 length=0.12256 units=m
New line.LINE161 Bus1=155 Bus2=162 phases=3 linecode=2c_16 length=11.7422 units=m
New line.LINE162 Bus1=155 Bus2=163 phases=3 linecode=4c_.35 length=5.2844 units=m
New line.LINE163 Bus1=156 Bus2=164 phases=3 linecode=2c_.007 length=0.20342 units=m
New line.LINE164 Bus1=157 Bus2=165 phases=3 linecode=2c_16 length=0.47178 units=m
New line.LINE165 Bus1=158 Bus2=166 phases=3 linecode=4c_.35 length=3.2899 units=m
New line.LINE166 Bus1=159 Bus2=167 phases=3 linecode=2c_16 length=0.28533 units=m
New line.LINE167 Bus1=160 Bus2=168 phases=3 linecode=4c_.1 length=1.7861 units=m
New line.LINE168 Bus1=161 Bus2=169 phases=3 linecode=4c_185 length=0.24958 units=m
New line.LINE169 Bus1=162 Bus2=170 phases=3 linecode=2c_16 length=2.2183 units=m
New line.LINE170 Bus1=163 Bus2=171 phases=3 linecode=4c_.35 length=7.0156 units=m
New line.LINE171 Bus1=164 Bus2=172 phases=3 linecode=2c_.007 length=0.1727 units=m
New line.LINE172 Bus1=165 Bus2=173 phases=3 linecode=2c_16 length=0.35642 units=m
New line.LINE173 Bus1=166 Bus2=174 phases=3 linecode=4c_.35 length=3.9183 units=m
New line.LINE174 Bus1=166 Bus2=175 phases=3 linecode=2c_16 length=4.2045 units=m
New line.LINE175 Bus1=167 Bus2=176 phases=3 linecode=2c_16 length=0.11853 units=m
New line.LINE176 Bus1=168 Bus2=177 phases=3 linecode=4c_.1 length=1.0088 units=m
New line.LINE177 Bus1=170 Bus2=178 phases=3 linecode=2c_16 length=4.5768 units=m
New line.LINE178 Bus1=171 Bus2=179 phases=3 linecode=4c_.35 length=1.1818 units=m
New line.LINE179 Bus1=171 Bus2=180 phases=3 linecode=2c_16 length=2.4224 units=m
New line.LINE180 Bus1=172 Bus2=181 phases=3 linecode=2c_.007 length=0.17961 units=m
New line.LINE181 Bus1=173 Bus2=182 phases=3 linecode=2c_16 length=0.41244 units=m
New line.LINE182 Bus1=174 Bus2=183 phases=3 linecode=4c_.35 length=0.58763 units=m
New line.LINE183 Bus1=175 Bus2=184 phases=3 linecode=2c_16 length=0.45409 units=m
New line.LINE184 Bus1=176 Bus2=185 phases=3 linecode=2c_16 length=0.25549 units=m
New line.LINE185 Bus1=177 Bus2=186 phases=3 linecode=4c_.1 length=0.74886 units=m
New line.LINE186 Bus1=179 Bus2=187 phases=3 linecode=4c_.35 length=4.6507 units=m
New line.LINE187 Bus1=180 Bus2=188 phases=3 linecode=2c_16 length=10.0258 units=m
New line.LINE188 Bus1=181 Bus2=189 phases=3 linecode=2c_.007 length=0.15412 units=m
New line.LINE189 Bus1=182 Bus2=190 phases=3 linecode=2c_16 length=0.3878 units=m
New line.LINE190 Bus1=183 Bus2=191 phases=3 linecode=4c_.35 length=2.3151 units=m
New line.LINE191 Bus1=183 Bus2=192 phases=3 linecode=4c_.35 length=0.27791 units=m
New line.LINE192 Bus1=184 Bus2=193 phases=3 linecode=2c_16 length=0.43923 units=m
New line.LINE193 Bus1=185 Bus2=194 phases=3 linecode=2c_16 length=0.65073 units=m
New line.LINE194 Bus1=186 Bus2=195 phases=3 linecode=4c_.1 length=0.67326 units=m
New line.LINE195 Bus1=187 Bus2=196 phases=3 linecode=4c_.35 length=8.3036 units=m
New line.LINE196 Bus1=188 Bus2=197 phases=3 linecode=2c_16 length=1.9595 units=m
New line.LINE197 Bus1=188 Bus2=198 phases=3 linecode=2c_16 length=1.1325 units=m
New line.LINE198 Bus1=189 Bus2=199 phases=3 linecode=2c_.007 length=0.19148 units=m
New line.LINE199 Bus1=190 Bus2=200 phases=3 linecode=2c_16 length=0.41725 units=m
New line.LINE200 Bus1=191 Bus2=201 phases=3 linecode=4c_.35 length=0.9314 units=m
...